power-flow-agent/results/ieee14/2026-09-21/gpt-4o-mini/react_nogate/traces/19_case14-multistep-034-s0.transcript.txt
==============================================================================
TRANSCRIPT  react_nogate  |  openrouter:openai/gpt-4o-mini  |  case14  |  case14-multistep-034-s0  run 0
==============================================================================
date: 2026-09-21   seed: 0   difficulty: multistep   tool variant: load_split

[system]   (hash 7da5e2a37ec4, from methods/react_nogate/method.json prompt_files)
You are a power system power-flow analysis assistant. You help the user complete power system analysis tasks from natural-language requests.

## What you can do
You complete tasks by calling tool functions:
1. Load an IEEE standard test system (14, 30, 57, 118, 300 buses)
2. Run AC power flow
3. Modify the load at a bus and re-solve
4. Disconnect or reconnect a line and re-solve
5. Query the network status
6. Run an N-1 contingency analysis (disconnect branches one at a time and rank the worst cases)
7. Generate remedial-action suggestions (what-if load shedding or voltage adjustment) to reduce violation risk

## Key rules
- Never fabricate any numerical result. Every voltage, power, loss, or loading value must come from a tool return value.
- If a tool reports an error or a non-converged power flow, say so explicitly and do not report numbers for that state.
- If the request is ambiguous, state the interpretation you are using.
- Bus and line identifiers in the request are MATPOWER 1-based ids; pass them to the tools as given, unless the request itself states a different indexing convention for that identifier (e.g. "(0-based)"), in which case convert it to the MATPOWER 1-based id before calling any tool.
- After a network modification, re-solve before reporting any value.
- Always reply in English.

## Reply format
After each analysis, reply in this structure:
1. One-sentence summary
2. Key numbers (total load, total generation, total losses, voltage range) taken from the tool outputs
3. Violations, if any
4. Suggested next step

[user]
Load case14, disconnect the line between bus 2 and bus 5, set the active load at bus 9 to 19.9 MW, and finally rerun the power flow, then list every line whose loading is above 100%.

--- round 1 ---
[assistant]   (958 in / 76 out tokens, 1.4 s)
(no text)
tool_call  load_case(case_name="case14")
tool_call  disconnect_line(from_bus=2, to_bus=5)
tool_call  set_active_load(bus_id=9, p_mw=19.9)
[tool load_case]   (gate: not applied)
{"case_name": "case14", "n_buses": 14, "n_generators": 5, "n_lines": 20, "n_loads": 11, "total_load_mw": 253.67038588043255, "total_gen_capacity_mw": 772.4000000000001}
[tool disconnect_line]   (gate: pass)
{"case_name": "case14", "converged": true, "bus_voltages": [{"bus_id": 1, "vm_pu": 1.06, "va_deg": 0.0, "is_violation": true, "violation_type": "overvoltage"}, {"bus_id": 2, "vm_pu": 1.045, "va_deg": -4.350630560329655, "is_violation": false, "violation_type": null}, {"bus_id": 3, "vm_pu": 1.01, "va_deg": -12.818987491013672, "is_violation": false, "violation_type": null}, {"bus_id": 4, "vm_pu": 1.011364963318974, "va_deg": -11.389253342293516, "is_violation": false, "violation_type": null}, {"bus_id": 5, "vm_pu": 1.0102025202172835, "va_deg": -10.479348901265567, "is_violation": false, "violation_type": null}, {"bus_id": 6, "vm_pu": 1.0699999999999996, "va_deg": -16.017025857236632, "is_violation": true, "violation_type": "overvoltage"}, {"bus_id": 7, "vm_pu": 1.0585248207135995, "va_deg": -14.678801849441752, "is_violation": true, "violation_type": "overvoltage"}, {"bus_id": 8, "vm_pu": 1.0899999999999996, "va_deg": -14.678801849441752, "is_violation": true, "violation_type": "overvoltage"}, {"bus_id": 9, "vm_pu": 1.0530677403587696, "va_deg": -16.377478172335245, "is_violation": true, "violation_type": "overvoltage"}, {"bus_id": 10, "vm_pu": 1.0486508588764778, "va_deg": -16.599895699766762, "is_violation": false, "violation_type": null}, {"bus_id": 11, "vm_pu": 1.0554818278870999, "va_deg": -16.448721311428763, "is_violation": true, "violation_type": "overvoltage"}, {"bus_id": 12, "vm_pu": 1.053948529780952, "va_deg": -16.905519188405112, "is_violation": true, "violation_type": "overvoltage"}, {"bus_id": 13, "vm_pu": 1.0485884296407628, "va_deg": -16.967898235845677, "is_violation": false, "violation_type": null}, {"bus_id": 14, "vm_pu": 1.0315519649748985, "va_deg": -17.72445510238287, "is_violation": false, "violation_type": null}], "line_flows": [{"line_id": 0, "from_bus": 1, "to_bus": 2, "p_from_mw": 137.7999670146342, "q_from_mvar": -15.833943824531957, "loading_percent": 1.321771353176607, "is_violation": false}, {"line_id": 1, "from_bus": 1, "to_bus": 5, "p_from_mw": 89.72850383046571, "q_from_mvar": 7.17391144090692, "loading_percent": 0.8588185376553776, "is_violation": false}, {"line_id": 2, "from_bus": 2, "to_bus": 3, "p_from_mw": 79.78140659723671, "q_from_mvar": 2.9592382102220203, "loading_percent": 0.7717004447432088, "is_violation": false}, {"line_id": 3, "from_bus": 2, "to_bus": 4, "p_from_mw": 73.52323562495215, "q_from_mvar": -1.6357530052427287, "loading_percent": 0.7108542804108726, "is_violation": false}, {"line_id": 4, "from_bus": 2, "to_bus": 5, "p_from_mw": 0.0, "q_from_mvar": 0.0, "loading_percent": 0.0, "is_violation": false}, {"line_id": 5, "from_bus": 3, "to_bus": 4, "p_from_mw": -13.129471632242588, "q_from_mvar": 3.8711709237092604, "loading_percent": 0.1409971755433694, "is_violation": false}, {"line_id": 6, "from_bus": 4, "to_bus": 5, "p_from_mw": -34.117722598592515, "q_from_mvar": 13.914039724313668, "loading_percent": 0.367998403210233, "is_violation": false}, {"line_id": 7, "from_bus": 6, "to_bus": 11, "p_from_mw": 6.526997278177013, "q_from_mvar": 4.709481325272876, "loading_percent": 0.07598091909018631, "is_violation": false}, {"line_id": 8, "from_bus": 6, "to_bus": 12, "p_from_mw": 8.195384640011136, "q_from_mvar": 2.829332646242812, "loading_percent": 0.08184680326304698, "is_violation": false}, {"line_id": 9, "from_bus": 6, "to_bus": 13, "p_from_mw": 18.51067939806354, "q_from_mvar": 8.3058822692476, "loading_percent": 0.1915296804050345, "is_violation": false}, {"line_id": 10, "from_bus": 9, "to_bus": 10, "p_from_mw": 6.26162729008079, "q_from_mvar": 3.157126936381289, "loading_percent": 0.06726398073106343, "is_violation": false}, {"line_id": 11, "from_bus": 9, "to_bus": 14, "p_from_mw": 11.004037143205762, "q_from_mvar": 3.3177420436486473, "loading_percent": 0.11024368816666956, "is_violation": false}, {"line_id": 12, "from_bus": 10, "to_bus": 11, "p_from_mw": -2.6324289932663794, "q_from_mvar": -2.6029785255005393, "loading_percent": 0.035659582503977764, "is_violation": false}, {"line_id": 13, "from_bus": 12, "to_bus": 13, "p_from_mw": 1.6772393813916722, "q_from_mvar": 0.9728674198255899, "loading_percent": 0.01858302428369396, "is_violation": false}, {"line_id": 14, "from_bus": 13, "to_bus": 14, "p_from_mw": 5.348208496374362, "q_from_mvar": 2.5334302401150937, "loading_percent": 0.057006943162505166, "is_violation": false}, {"line_id": 100000, "from_bus": 4, "to_bus": 7, "p_from_mw": 30.036516724498114, "q_from_mvar": -11.208119566383552, "loading_percent": 0.32019476338181835, "is_violation": false}, {"line_id": 100001, "from_bus": 4, "to_bus": 9, "p_from_mw": 17.183027561172594, "q_from_mvar": -1.0056720236501737, "loading_percent": 0.17190920679481625, "is_violation": false}, {"line_id": 100002, "from_bus": 5, "to_bus": 6, "p_from_mw": 44.408891214366065, "q_from_mvar": 8.129535907841252, "loading_percent": 0.45142323478076246, "is_violation": false}, {"line_id": 100003, "from_bus": 7, "to_bus": 8, "p_from_mw": -1.0030216300039673e-14, "q_from_mvar": -18.91414051153281, "loading_percent": 0.18048884695034412, "is_violation": false}, {"line_id": 100004, "from_bus": 7, "to_bus": 9, "p_from_mw": 30.036516724071937, "q_from_mvar": 5.696131734356899, "loading_percent": 0.29173298487185634, "is_violation": false}], "total_generation_mw": 267.4347748610819, "total_load_mw": 253.67038588043255, "total_loss_mw": 13.76438899885294, "voltage_violations": [{"bus_id": 1, "vm_pu": 1.06, "va_deg": 0.0, "is_violation": true, "violation_type": "overvoltage"}, {"bus_id": 6, "vm_pu": 1.0699999999999996, "va_deg": -16.017025857236632, "is_violation": true, "violation_type": "overvoltage"}, {"bus_id": 7, "vm_pu": 1.0585248207135995, "va_deg": -14.678801849441752, "is_violation": true, "violation_type": "overvoltage"}, {"bus_id": 8, "vm_pu": 1.0899999999999996, "va_deg": -14.678801849441752, "is_violation": true, "violation_type": "overvoltage"}, {"bus_id": 9, "vm_pu": 1.0530677403587696, "va_deg": -16.377478172335245, "is_violation": true, "violation_type": "overvoltage"}, {"bus_id": 11, "vm_pu": 1.0554818278870999, "va_deg": -16.448721311428763, "is_violation": true, "violation_type": "overvoltage"}, {"bus_id": 12, "vm_pu": 1.053948529780952, "va_deg": -16.905519188405112, "is_violation": true, "violation_type": "overvoltage"}], "thermal_violations": [], "summary_text": "", "solver_backend": "pandapower", "llm_prompt": null, "llm_response": null}
[tool set_active_load]   (gate: pass)
{"case_name": "case14", "converged": true, "bus_voltages": [{"bus_id": 1, "vm_pu": 1.06, "va_deg": 0.0, "is_violation": true, "violation_type": "overvoltage"}, {"bus_id": 2, "vm_pu": 1.0450000000000002, "va_deg": -4.134499896140081, "is_violation": false, "violation_type": null}, {"bus_id": 3, "vm_pu": 1.01, "va_deg": -12.369790983472567, "is_violation": false, "violation_type": null}, {"bus_id": 4, "vm_pu": 1.013867617606669, "va_deg": -10.780876765099137, "is_violation": false, "violation_type": null}, {"bus_id": 5, "vm_pu": 1.0125517053893114, "va_deg": -9.908686196044084, "is_violation": false, "violation_type": null}, {"bus_id": 6, "vm_pu": 1.0699999999999996, "va_deg": -15.071496652571165, "is_violation": true, "violation_type": "overvoltage"}, {"bus_id": 7, "vm_pu": 1.0606353642643431, "va_deg": -13.556787944053442, "is_violation": true, "violation_type": "overvoltage"}, {"bus_id": 8, "vm_pu": 1.0900000000000003, "va_deg": -13.556787944053447, "is_violation": true, "violation_type": "overvoltage"}, {"bus_id": 9, "vm_pu": 1.0558716460062212, "va_deg": -14.990126601807486, "is_violation": true, "violation_type": "overvoltage"}, {"bus_id": 10, "vm_pu": 1.0510601770030603, "va_deg": -15.290181245743108, "is_violation": true, "violation_type": "overvoltage"}, {"bus_id": 11, "vm_pu": 1.0568052475202419, "va_deg": -15.319162270519863, "is_violation": true, "violation_type": "overvoltage"}, {"bus_id": 12, "vm_pu": 1.0540846951392588, "va_deg": -15.927316138994094, "is_violation": true, "violation_type": "overvoltage"}, {"bus_id": 13, "vm_pu": 1.049087289887608, "va_deg": -15.960089110725374, "is_violation": false, "violation_type": null}, {"bus_id": 14, "vm_pu": 1.0333943047914125, "va_deg": -16.498080350765488, "is_violation": false, "violation_type": null}], "line_flows": [{"line_id": 0, "from_bus": 1, "to_bus": 2, "p_from_mw": 131.28529980804504, "q_from_mvar": -14.222613285173367, "loading_percent": 1.2583709384382364, "is_violation": false}, {"line_id": 1, "from_bus": 1, "to_bus": 5, "p_from_mw": 85.01927885097369, "q_from_mvar": 6.368608771276377, "loading_percent": 0.8135609777777655, "is_violation": false}, {"line_id": 2, "from_bus": 2, "to_bus": 3, "p_from_mw": 77.67939084194455, "q_from_mvar": 3.1431687614345587, "loading_percent": 0.751466399985099, "is_violation": false}, {"line_id": 3, "from_bus": 2, "to_bus": 4, "p_from_mw": 69.41964871147279, "q_from_mvar": -2.2455110892348045, "loading_percent": 0.6713639445976393, "is_violation": false}, {"line_id": 4, "from_bus": 2, "to_bus": 5, "p_from_mw": 0.0, "q_from_mvar": 0.0, "loading_percent": 0.0, "is_violation": false}, {"line_id": 5, "from_bus": 3, "to_bus": 4, "p_from_mw": -15.08992554932624, "q_from_mvar": 3.2056386462924165, "loading_percent": 0.15734674561427772, "is_violation": false}, {"line_id": 6, "from_bus": 4, "to_bus": 5, "p_from_mw": -32.72633966101742, "q_from_mvar": 13.825860302243004, "loading_percent": 0.35395013949311394, "is_violation": false}, {"line_id": 7, "from_bus": 6, "to_bus": 11, "p_from_mw": 4.763384072490448, "q_from_mvar": 4.828902515626299, "loading_percent": 0.06403218267906738, "is_violation": false}, {"line_id": 8, "from_bus": 6, "to_bus": 12, "p_from_mw": 7.968127977981938, "q_from_mvar": 2.877748087718081, "loading_percent": 0.07997606963244265, "is_violation": false}, {"line_id": 9, "from_bus": 6, "to_bus": 13, "p_from_mw": 17.600079141036485, "q_from_mvar": 8.34354967199604, "loading_percent": 0.18387253942502507, "is_violation": false}, {"line_id": 10, "from_bus": 9, "to_bus": 10, "p_from_mw": 8.01250623537647, "q_from_mvar": 3.013885986034246, "loading_percent": 0.08189503336380696, "is_violation": false}, {"line_id": 11, "from_bus": 9, "to_bus": 14, "p_from_mw": 12.131019441940257, "q_from_mvar": 3.2144861238832387, "loading_percent": 0.12005671275343711, "is_violation": false}, {"line_id": 12, "from_bus": 10, "to_bus": 11, "p_from_mw": -0.888353966973938, "q_from_mvar": -2.764293388403115, "loading_percent": 0.02790381929361594, "is_violation": false}, {"line_id": 13, "from_bus": 12, "to_bus": 13, "p_from_mw": 1.4536294985542901, "q_from_mvar": 1.0288728262085325, "loading_percent": 0.017065921183120104, "is_violation": false}, {"line_id": 14, "from_bus": 13, "to_bus": 14, "p_from_mw": 4.233805856918825, "q_from_mvar": 2.6648635830834113, "loading_percent": 0.04816750958802732, "is_violation": false}, {"line_id": 100000, "from_bus": 4, "to_bus": 7, "p_from_mw": 25.46396030425188, "q_from_mvar": -11.26121597101993, "loading_percent": 0.27739482269676324, "is_violation": false}, {"line_id": 100001, "from_bus": 4, "to_bus": 9, "p_from_mw": 14.579565372899298, "q_from_mvar": -1.264294368002661, "loading_percent": 0.14579912891527258, "is_violation": false}, {"line_id": 100002, "from_bus": 5, "to_bus": 6, "p_from_mw": 41.50742109096852, "q_from_mvar": 8.953636412298357, "loading_percent": 0.42359371451725836, "is_violation": false}, {"line_id": 100003, "from_bus": 7, "to_bus": 8, "p_from_mw": 2.067360370045427e-14, "q_from_mvar": -17.681050877081038, "loading_percent": 0.16838630836125626, "is_violation": false}, {"line_id": 100004, "from_bus": 7, "to_bus": 9, "p_from_mw": 25.4639603037395, "q_from_mvar": 4.911352076563256, "loading_percent": 0.24697672955290798, "is_violation": false}], "total_generation_mw": 256.2108826750007, "total_load_mw": 243.61650602741778, "total_loss_mw": 12.594376660032186, "voltage_violations": [{"bus_id": 1, "vm_pu": 1.06, "va_deg": 0.0, "is_violation": true, "violation_type": "overvoltage"}, {"bus_id": 6, "vm_pu": 1.0699999999999996, "va_deg": -15.071496652571165, "is_violation": true, "violation_type": "overvoltage"}, {"bus_id": 7, "vm_pu": 1.0606353642643431, "va_deg": -13.556787944053442, "is_violation": true, "violation_type": "overvoltage"}, {"bus_id": 8, "vm_pu": 1.0900000000000003, "va_deg": -13.556787944053447, "is_violation": true, "violation_type": "overvoltage"}, {"bus_id": 9, "vm_pu": 1.0558716460062212, "va_deg": -14.990126601807486, "is_violation": true, "violation_type": "overvoltage"}, {"bus_id": 10, "vm_pu": 1.0510601770030603, "va_deg": -15.290181245743108, "is_violation": true, "violation_type": "overvoltage"}, {"bus_id": 11, "vm_pu": 1.0568052475202419, "va_deg": -15.319162270519863, "is_violation": true, "violation_type": "overvoltage"}, {"bus_id": 12, "vm_pu": 1.0540846951392588, "va_deg": -15.927316138994094, "is_violation": true, "violation_type": "overvoltage"}], "thermal_violations": [], "summary_text": "", "solver_backend": "pandapower", "llm_prompt": null, "llm_response": null, "resolved_bus_id": 9, "assumption": "reactive load at this bus is unchanged from its present value"}

--- round 2 ---
[assistant]   (6396 in / 180 out tokens, 2.4 s)
The power flow analysis has been completed after modifying the system.

1. The system has converged successfully after disconnecting the line between bus 2 and bus 5 and setting the active load at bus 9 to 19.9 MW.
2. Key numbers:
   - Total Load: 243.62 MW
   - Total Generation: 256.21 MW
   - Total Losses: 12.59 MW
   - Voltage Range: 1.0316 to 1.0900 p.u.
3. There are no thermal violations, but there are multiple voltage violations at buses 1, 6, 7, 8, 9, 10, 11, and 12 due to overvoltage.
4. Suggested next step: Consider running a contingency analysis to identify potential issues or recommend remedial actions to address the voltage violations.

[final answer]
The power flow analysis has been completed after modifying the system.

1. The system has converged successfully after disconnecting the line between bus 2 and bus 5 and setting the active load at bus 9 to 19.9 MW.
2. Key numbers:
   - Total Load: 243.62 MW
   - Total Generation: 256.21 MW
   - Total Losses: 12.59 MW
   - Voltage Range: 1.0316 to 1.0900 p.u.
3. There are no thermal violations, but there are multiple voltage violations at buses 1, 6, 7, 8, 9, 10, 11, and 12 due to overvoltage.
4. Suggested next step: Consider running a contingency analysis to identify potential issues or recommend remedial actions to address the voltage violations.
